
---------- Begin Simulation Statistics ----------
simSeconds                                   0.137683                       # Number of seconds simulated (Second)
simTicks                                 137682990000                       # Number of ticks simulated (Tick)
finalTick                                137682990000                       # Number of ticks from beginning of simulation (restored from checkpoints and never reset) (Tick)
simFreq                                  1000000000000                       # The number of ticks per simulated second ((Tick/Second))
hostSeconds                                    458.52                       # Real time elapsed on the host (Second)
hostTickRate                                300279503                       # The number of ticks simulated per host second (ticks/s) ((Tick/Second))
hostMemory                                    2815088                       # Number of bytes of host memory used (Byte)
simInsts                                     38655545                       # Number of instructions simulated (Count)
simOps                                       77799364                       # Number of ops (including micro ops) simulated (Count)
hostInstRate                                    84306                       # Simulator instruction rate (inst/s) ((Count/Second))
hostOpRate                                     169676                       # Simulator op (including micro ops) rate (op/s) ((Count/Second))
system.clk_domain.clock                          1000                       # Clock period in ticks (Tick)
system.cpu0.numCycles                       275365980                       # Number of cpu cycles simulated (Cycle)
system.cpu0.numWorkItemsStarted                     0                       # Number of work items this cpu started (Count)
system.cpu0.numWorkItemsCompleted                   0                       # Number of work items this cpu completed (Count)
system.cpu0.clk_domain.clock                      500                       # Clock period in ticks (Tick)
system.cpu0.clk_domain.voltage_domain.voltage            1                       # Voltage in Volts (Volt)
system.cpu0.exec_context.thread_0.numInsts     36990640                       # Number of instructions committed (Count)
system.cpu0.exec_context.thread_0.numOps     74665578                       # Number of ops (including micro ops) committed (Count)
system.cpu0.exec_context.thread_0.numIntAluAccesses     57890194                       # Number of integer alu accesses (Count)
system.cpu0.exec_context.thread_0.numFpAluAccesses     21701470                       # Number of float alu accesses (Count)
system.cpu0.exec_context.thread_0.numVecAluAccesses            0                       # Number of vector alu accesses (Count)
system.cpu0.exec_context.thread_0.numCallsReturns       828912                       # Number of times a function call or return occured (Count)
system.cpu0.exec_context.thread_0.numCondCtrlInsts      7131962                       # Number of instructions that are conditional controls (Count)
system.cpu0.exec_context.thread_0.numIntInsts     57890194                       # Number of integer instructions (Count)
system.cpu0.exec_context.thread_0.numFpInsts     21701470                       # Number of float instructions (Count)
system.cpu0.exec_context.thread_0.numVecInsts            0                       # Number of vector instructions (Count)
system.cpu0.exec_context.thread_0.numIntRegReads     74993354                       # Number of times the integer registers were read (Count)
system.cpu0.exec_context.thread_0.numIntRegWrites     42586413                       # Number of times the integer registers were written (Count)
system.cpu0.exec_context.thread_0.numFpRegReads     30508485                       # Number of times the floating registers were read (Count)
system.cpu0.exec_context.thread_0.numFpRegWrites     18657522                       # Number of times the floating registers were written (Count)
system.cpu0.exec_context.thread_0.numVecRegReads            0                       # Number of times the vector registers were read (Count)
system.cpu0.exec_context.thread_0.numVecRegWrites            0                       # Number of times the vector registers were written (Count)
system.cpu0.exec_context.thread_0.numVecPredRegReads            0                       # Number of times the predicate registers were read (Count)
system.cpu0.exec_context.thread_0.numVecPredRegWrites            0                       # Number of times the predicate registers were written (Count)
system.cpu0.exec_context.thread_0.numCCRegReads     44369529                       # Number of times the CC registers were read (Count)
system.cpu0.exec_context.thread_0.numCCRegWrites     19390573                       # Number of times the CC registers were written (Count)
system.cpu0.exec_context.thread_0.numMiscRegReads     28387453                       # Number of times the Misc registers were read (Count)
system.cpu0.exec_context.thread_0.numMiscRegWrites         4558                       # Number of times the Misc registers were written (Count)
system.cpu0.exec_context.thread_0.numMemRefs     10464200                       # Number of memory refs (Count)
system.cpu0.exec_context.thread_0.numLoadInsts      7627523                       # Number of load instructions (Count)
system.cpu0.exec_context.thread_0.numStoreInsts      2836677                       # Number of store instructions (Count)
system.cpu0.exec_context.thread_0.numIdleCycles 6777633.001951                       # Number of idle cycles (Cycle)
system.cpu0.exec_context.thread_0.numBusyCycles 268588346.998049                       # Number of busy cycles (Cycle)
system.cpu0.exec_context.thread_0.notIdleFraction     0.975387                       # Percentage of non-idle cycles (Ratio)
system.cpu0.exec_context.thread_0.idleFraction     0.024613                       # Percentage of idle cycles (Ratio)
system.cpu0.exec_context.thread_0.numBranches      8844340                       # Number of branches fetched (Count)
system.cpu0.exec_context.thread_0.statExecutedInstType::No_OpClass       648147      0.87%      0.87% # Class of executed instruction. (Count)
system.cpu0.exec_context.thread_0.statExecutedInstType::IntAlu     46910316     62.69%     63.56% # Class of executed instruction. (Count)
system.cpu0.exec_context.thread_0.statExecutedInstType::IntMult        95366      0.13%     63.68% # Class of executed instruction. (Count)
system.cpu0.exec_context.thread_0.statExecutedInstType::IntDiv        66324      0.09%     63.77% # Class of executed instruction. (Count)
system.cpu0.exec_context.thread_0.statExecutedInstType::FloatAdd      4204889      5.62%     69.39% # Class of executed instruction. (Count)
system.cpu0.exec_context.thread_0.statExecutedInstType::FloatCmp           51      0.00%     69.39% # Class of executed instruction. (Count)
system.cpu0.exec_context.thread_0.statExecutedInstType::FloatCvt         7170      0.01%     69.40% # Class of executed instruction. (Count)
system.cpu0.exec_context.thread_0.statExecutedInstType::FloatMult           17      0.00%     69.40% # Class of executed instruction. (Count)
system.cpu0.exec_context.thread_0.statExecutedInstType::FloatMultAcc            0      0.00%     69.40% # Class of executed instruction. (Count)
system.cpu0.exec_context.thread_0.statExecutedInstType::FloatDiv           17      0.00%     69.40% # Class of executed instruction. (Count)
system.cpu0.exec_context.thread_0.statExecutedInstType::FloatMisc            0      0.00%     69.40% # Class of executed instruction. (Count)
system.cpu0.exec_context.thread_0.statExecutedInstType::FloatSqrt            0      0.00%     69.40% # Class of executed instruction. (Count)
system.cpu0.exec_context.thread_0.statExecutedInstType::SimdAdd      1018854      1.36%     70.76% # Class of executed instruction. (Count)
system.cpu0.exec_context.thread_0.statExecutedInstType::SimdAddAcc            0      0.00%     70.76% # Class of executed instruction. (Count)
system.cpu0.exec_context.thread_0.statExecutedInstType::SimdAlu      2635151      3.52%     74.29% # Class of executed instruction. (Count)
system.cpu0.exec_context.thread_0.statExecutedInstType::SimdCmp         3210      0.00%     74.29% # Class of executed instruction. (Count)
system.cpu0.exec_context.thread_0.statExecutedInstType::SimdCvt        76910      0.10%     74.39% # Class of executed instruction. (Count)
system.cpu0.exec_context.thread_0.statExecutedInstType::SimdMisc      4354984      5.82%     80.21% # Class of executed instruction. (Count)
system.cpu0.exec_context.thread_0.statExecutedInstType::SimdMult            0      0.00%     80.21% # Class of executed instruction. (Count)
system.cpu0.exec_context.thread_0.statExecutedInstType::SimdMultAcc            0      0.00%     80.21% # Class of executed instruction. (Count)
system.cpu0.exec_context.thread_0.statExecutedInstType::SimdShift         8585      0.01%     80.22% # Class of executed instruction. (Count)
system.cpu0.exec_context.thread_0.statExecutedInstType::SimdShiftAcc            0      0.00%     80.22% # Class of executed instruction. (Count)
system.cpu0.exec_context.thread_0.statExecutedInstType::SimdDiv            0      0.00%     80.22% # Class of executed instruction. (Count)
system.cpu0.exec_context.thread_0.statExecutedInstType::SimdSqrt            0      0.00%     80.22% # Class of executed instruction. (Count)
system.cpu0.exec_context.thread_0.statExecutedInstType::SimdFloatAdd       592608      0.79%     81.02% # Class of executed instruction. (Count)
system.cpu0.exec_context.thread_0.statExecutedInstType::SimdFloatAlu            0      0.00%     81.02% # Class of executed instruction. (Count)
system.cpu0.exec_context.thread_0.statExecutedInstType::SimdFloatCmp            0      0.00%     81.02% # Class of executed instruction. (Count)
system.cpu0.exec_context.thread_0.statExecutedInstType::SimdFloatCvt      2555711      3.42%     84.43% # Class of executed instruction. (Count)
system.cpu0.exec_context.thread_0.statExecutedInstType::SimdFloatDiv            5      0.00%     84.43% # Class of executed instruction. (Count)
system.cpu0.exec_context.thread_0.statExecutedInstType::SimdFloatMisc            0      0.00%     84.43% # Class of executed instruction. (Count)
system.cpu0.exec_context.thread_0.statExecutedInstType::SimdFloatMult      1185241      1.58%     86.02% # Class of executed instruction. (Count)
system.cpu0.exec_context.thread_0.statExecutedInstType::SimdFloatMultAcc            0      0.00%     86.02% # Class of executed instruction. (Count)
system.cpu0.exec_context.thread_0.statExecutedInstType::SimdFloatSqrt            0      0.00%     86.02% # Class of executed instruction. (Count)
system.cpu0.exec_context.thread_0.statExecutedInstType::SimdReduceAdd            0      0.00%     86.02% # Class of executed instruction. (Count)
system.cpu0.exec_context.thread_0.statExecutedInstType::SimdReduceAlu            0      0.00%     86.02% # Class of executed instruction. (Count)
system.cpu0.exec_context.thread_0.statExecutedInstType::SimdReduceCmp            0      0.00%     86.02% # Class of executed instruction. (Count)
system.cpu0.exec_context.thread_0.statExecutedInstType::SimdFloatReduceAdd            0      0.00%     86.02% # Class of executed instruction. (Count)
system.cpu0.exec_context.thread_0.statExecutedInstType::SimdFloatReduceCmp            0      0.00%     86.02% # Class of executed instruction. (Count)
system.cpu0.exec_context.thread_0.statExecutedInstType::SimdAes            0      0.00%     86.02% # Class of executed instruction. (Count)
system.cpu0.exec_context.thread_0.statExecutedInstType::SimdAesMix            0      0.00%     86.02% # Class of executed instruction. (Count)
system.cpu0.exec_context.thread_0.statExecutedInstType::SimdSha1Hash            0      0.00%     86.02% # Class of executed instruction. (Count)
system.cpu0.exec_context.thread_0.statExecutedInstType::SimdSha1Hash2            0      0.00%     86.02% # Class of executed instruction. (Count)
system.cpu0.exec_context.thread_0.statExecutedInstType::SimdSha256Hash            0      0.00%     86.02% # Class of executed instruction. (Count)
system.cpu0.exec_context.thread_0.statExecutedInstType::SimdSha256Hash2            0      0.00%     86.02% # Class of executed instruction. (Count)
system.cpu0.exec_context.thread_0.statExecutedInstType::SimdShaSigma2            0      0.00%     86.02% # Class of executed instruction. (Count)
system.cpu0.exec_context.thread_0.statExecutedInstType::SimdShaSigma3            0      0.00%     86.02% # Class of executed instruction. (Count)
system.cpu0.exec_context.thread_0.statExecutedInstType::SimdPredAlu            0      0.00%     86.02% # Class of executed instruction. (Count)
system.cpu0.exec_context.thread_0.statExecutedInstType::MemRead      4926252      6.58%     92.60% # Class of executed instruction. (Count)
system.cpu0.exec_context.thread_0.statExecutedInstType::MemWrite      2226248      2.98%     95.57% # Class of executed instruction. (Count)
system.cpu0.exec_context.thread_0.statExecutedInstType::FloatMemRead      2701271      3.61%     99.18% # Class of executed instruction. (Count)
system.cpu0.exec_context.thread_0.statExecutedInstType::FloatMemWrite       610429      0.82%    100.00% # Class of executed instruction. (Count)
system.cpu0.exec_context.thread_0.statExecutedInstType::IprAccess            0      0.00%    100.00% # Class of executed instruction. (Count)
system.cpu0.exec_context.thread_0.statExecutedInstType::InstPrefetch            0      0.00%    100.00% # Class of executed instruction. (Count)
system.cpu0.exec_context.thread_0.statExecutedInstType::total     74827756                       # Class of executed instruction. (Count)
system.cpu0.interrupts.clk_domain.clock          8000                       # Clock period in ticks (Tick)
system.cpu0.mmu.dtb.rdAccesses                7634437                       # TLB accesses on read requests (Count)
system.cpu0.mmu.dtb.wrAccesses                2838951                       # TLB accesses on write requests (Count)
system.cpu0.mmu.dtb.rdMisses                    18713                       # TLB misses on read requests (Count)
system.cpu0.mmu.dtb.wrMisses                     4293                       # TLB misses on write requests (Count)
system.cpu0.mmu.dtb.walker.power_state.pwrStateResidencyTicks::UNDEFINED 137682990000                       # Cumulative time (in ticks) in various power states (Tick)
system.cpu0.mmu.itb.rdAccesses                      0                       # TLB accesses on read requests (Count)
system.cpu0.mmu.itb.wrAccesses               50319445                       # TLB accesses on write requests (Count)
system.cpu0.mmu.itb.rdMisses                        0                       # TLB misses on read requests (Count)
system.cpu0.mmu.itb.wrMisses                     3951                       # TLB misses on write requests (Count)
system.cpu0.mmu.itb.walker.power_state.pwrStateResidencyTicks::UNDEFINED 137682990000                       # Cumulative time (in ticks) in various power states (Tick)
system.cpu0.power_state.numTransitions              6                       # Number of power state transitions (Count)
system.cpu0.power_state.ticksClkGated::samples            3                       # Distribution of time spent in the clock gated state (Tick)
system.cpu0.power_state.ticksClkGated::mean   1129605500                       # Distribution of time spent in the clock gated state (Tick)
system.cpu0.power_state.ticksClkGated::stdev 1861695992.878268                       # Distribution of time spent in the clock gated state (Tick)
system.cpu0.power_state.ticksClkGated::1000-5e+10            3    100.00%    100.00% # Distribution of time spent in the clock gated state (Tick)
system.cpu0.power_state.ticksClkGated::min_value     36288500                       # Distribution of time spent in the clock gated state (Tick)
system.cpu0.power_state.ticksClkGated::max_value   3279200500                       # Distribution of time spent in the clock gated state (Tick)
system.cpu0.power_state.ticksClkGated::total            3                       # Distribution of time spent in the clock gated state (Tick)
system.cpu0.power_state.pwrStateResidencyTicks::ON 134294173500                       # Cumulative time (in ticks) in various power states (Tick)
system.cpu0.power_state.pwrStateResidencyTicks::CLK_GATED   3388816500                       # Cumulative time (in ticks) in various power states (Tick)
system.cpu0.thread_0.numInsts                       0                       # Number of Instructions committed (Count)
system.cpu0.thread_0.numOps                         0                       # Number of Ops committed (Count)
system.cpu0.thread_0.numMemRefs                     0                       # Number of Memory References (Count)
system.cpu0.workload.numSyscalls               149993                       # Number of system calls (Count)
system.cpu0.workload.drivers0.device.dispatcher.numKernelLaunched            1                       # number of kernel launched (Unspecified)
system.cpu0.workload.drivers0.device.dispatcher.cyclesWaitingForDispatch         1984                       # number of cycles with outstanding wavefronts that are waiting to be dispatched (Unspecified)
system.cpu0.workload.drivers0.device.hsapp.power_state.pwrStateResidencyTicks::UNDEFINED 137682990000                       # Cumulative time (in ticks) in various power states (Tick)
system.cpu0.workload.drivers0.device.power_state.pwrStateResidencyTicks::UNDEFINED 137682990000                       # Cumulative time (in ticks) in various power states (Tick)
system.cpu1.numCycles                       194923330                       # Number of cpu cycles simulated (Cycle)
system.cpu1.numWorkItemsStarted                     0                       # Number of work items this cpu started (Count)
system.cpu1.numWorkItemsCompleted                   0                       # Number of work items this cpu completed (Count)
system.cpu1.clk_domain.clock                      500                       # Clock period in ticks (Tick)
system.cpu1.clk_domain.voltage_domain.voltage            1                       # Voltage in Volts (Volt)
system.cpu1.exec_context.thread_0.numInsts       348855                       # Number of instructions committed (Count)
system.cpu1.exec_context.thread_0.numOps       649703                       # Number of ops (including micro ops) committed (Count)
system.cpu1.exec_context.thread_0.numIntAluAccesses       626102                       # Number of integer alu accesses (Count)
system.cpu1.exec_context.thread_0.numFpAluAccesses        20458                       # Number of float alu accesses (Count)
system.cpu1.exec_context.thread_0.numVecAluAccesses            0                       # Number of vector alu accesses (Count)
system.cpu1.exec_context.thread_0.numCallsReturns        18262                       # Number of times a function call or return occured (Count)
system.cpu1.exec_context.thread_0.numCondCtrlInsts        90124                       # Number of instructions that are conditional controls (Count)
system.cpu1.exec_context.thread_0.numIntInsts       626102                       # Number of integer instructions (Count)
system.cpu1.exec_context.thread_0.numFpInsts        20458                       # Number of float instructions (Count)
system.cpu1.exec_context.thread_0.numVecInsts            0                       # Number of vector instructions (Count)
system.cpu1.exec_context.thread_0.numIntRegReads       827831                       # Number of times the integer registers were read (Count)
system.cpu1.exec_context.thread_0.numIntRegWrites       493081                       # Number of times the integer registers were written (Count)
system.cpu1.exec_context.thread_0.numFpRegReads        24629                       # Number of times the floating registers were read (Count)
system.cpu1.exec_context.thread_0.numFpRegWrites        17128                       # Number of times the floating registers were written (Count)
system.cpu1.exec_context.thread_0.numVecRegReads            0                       # Number of times the vector registers were read (Count)
system.cpu1.exec_context.thread_0.numVecRegWrites            0                       # Number of times the vector registers were written (Count)
system.cpu1.exec_context.thread_0.numVecPredRegReads            0                       # Number of times the predicate registers were read (Count)
system.cpu1.exec_context.thread_0.numVecPredRegWrites            0                       # Number of times the predicate registers were written (Count)
system.cpu1.exec_context.thread_0.numCCRegReads       551005                       # Number of times the CC registers were read (Count)
system.cpu1.exec_context.thread_0.numCCRegWrites       189119                       # Number of times the CC registers were written (Count)
system.cpu1.exec_context.thread_0.numMiscRegReads       377398                       # Number of times the Misc registers were read (Count)
system.cpu1.exec_context.thread_0.numMiscRegWrites           27                       # Number of times the Misc registers were written (Count)
system.cpu1.exec_context.thread_0.numMemRefs       160127                       # Number of memory refs (Count)
system.cpu1.exec_context.thread_0.numLoadInsts       145097                       # Number of load instructions (Count)
system.cpu1.exec_context.thread_0.numStoreInsts        15030                       # Number of store instructions (Count)
system.cpu1.exec_context.thread_0.numIdleCycles 193945520.077425                       # Number of idle cycles (Cycle)
system.cpu1.exec_context.thread_0.numBusyCycles 977809.922575                       # Number of busy cycles (Cycle)
system.cpu1.exec_context.thread_0.notIdleFraction     0.005016                       # Percentage of non-idle cycles (Ratio)
system.cpu1.exec_context.thread_0.idleFraction     0.994984                       # Percentage of idle cycles (Ratio)
system.cpu1.exec_context.thread_0.numBranches       111115                       # Number of branches fetched (Count)
system.cpu1.exec_context.thread_0.statExecutedInstType::No_OpClass        10618      1.63%      1.63% # Class of executed instruction. (Count)
system.cpu1.exec_context.thread_0.statExecutedInstType::IntAlu       464733     71.53%     73.16% # Class of executed instruction. (Count)
system.cpu1.exec_context.thread_0.statExecutedInstType::IntMult            5      0.00%     73.16% # Class of executed instruction. (Count)
system.cpu1.exec_context.thread_0.statExecutedInstType::IntDiv           75      0.01%     73.18% # Class of executed instruction. (Count)
system.cpu1.exec_context.thread_0.statExecutedInstType::FloatAdd         2885      0.44%     73.62% # Class of executed instruction. (Count)
system.cpu1.exec_context.thread_0.statExecutedInstType::FloatCmp            0      0.00%     73.62% # Class of executed instruction. (Count)
system.cpu1.exec_context.thread_0.statExecutedInstType::FloatCvt           48      0.01%     73.63% # Class of executed instruction. (Count)
system.cpu1.exec_context.thread_0.statExecutedInstType::FloatMult            0      0.00%     73.63% # Class of executed instruction. (Count)
system.cpu1.exec_context.thread_0.statExecutedInstType::FloatMultAcc            0      0.00%     73.63% # Class of executed instruction. (Count)
system.cpu1.exec_context.thread_0.statExecutedInstType::FloatDiv            0      0.00%     73.63% # Class of executed instruction. (Count)
system.cpu1.exec_context.thread_0.statExecutedInstType::FloatMisc            0      0.00%     73.63% # Class of executed instruction. (Count)
system.cpu1.exec_context.thread_0.statExecutedInstType::FloatSqrt            0      0.00%     73.63% # Class of executed instruction. (Count)
system.cpu1.exec_context.thread_0.statExecutedInstType::SimdAdd           20      0.00%     73.63% # Class of executed instruction. (Count)
system.cpu1.exec_context.thread_0.statExecutedInstType::SimdAddAcc            0      0.00%     73.63% # Class of executed instruction. (Count)
system.cpu1.exec_context.thread_0.statExecutedInstType::SimdAlu         2773      0.43%     74.06% # Class of executed instruction. (Count)
system.cpu1.exec_context.thread_0.statExecutedInstType::SimdCmp            0      0.00%     74.06% # Class of executed instruction. (Count)
system.cpu1.exec_context.thread_0.statExecutedInstType::SimdCvt           40      0.01%     74.06% # Class of executed instruction. (Count)
system.cpu1.exec_context.thread_0.statExecutedInstType::SimdMisc         1568      0.24%     74.30% # Class of executed instruction. (Count)
system.cpu1.exec_context.thread_0.statExecutedInstType::SimdMult            0      0.00%     74.30% # Class of executed instruction. (Count)
system.cpu1.exec_context.thread_0.statExecutedInstType::SimdMultAcc            0      0.00%     74.30% # Class of executed instruction. (Count)
system.cpu1.exec_context.thread_0.statExecutedInstType::SimdShift           19      0.00%     74.31% # Class of executed instruction. (Count)
system.cpu1.exec_context.thread_0.statExecutedInstType::SimdShiftAcc            0      0.00%     74.31% # Class of executed instruction. (Count)
system.cpu1.exec_context.thread_0.statExecutedInstType::SimdDiv            0      0.00%     74.31% # Class of executed instruction. (Count)
system.cpu1.exec_context.thread_0.statExecutedInstType::SimdSqrt            0      0.00%     74.31% # Class of executed instruction. (Count)
system.cpu1.exec_context.thread_0.statExecutedInstType::SimdFloatAdd         1361      0.21%     74.52% # Class of executed instruction. (Count)
system.cpu1.exec_context.thread_0.statExecutedInstType::SimdFloatAlu            0      0.00%     74.52% # Class of executed instruction. (Count)
system.cpu1.exec_context.thread_0.statExecutedInstType::SimdFloatCmp            0      0.00%     74.52% # Class of executed instruction. (Count)
system.cpu1.exec_context.thread_0.statExecutedInstType::SimdFloatCvt         4073      0.63%     75.14% # Class of executed instruction. (Count)
system.cpu1.exec_context.thread_0.statExecutedInstType::SimdFloatDiv            9      0.00%     75.14% # Class of executed instruction. (Count)
system.cpu1.exec_context.thread_0.statExecutedInstType::SimdFloatMisc            0      0.00%     75.14% # Class of executed instruction. (Count)
system.cpu1.exec_context.thread_0.statExecutedInstType::SimdFloatMult         1360      0.21%     75.35% # Class of executed instruction. (Count)
system.cpu1.exec_context.thread_0.statExecutedInstType::SimdFloatMultAcc            0      0.00%     75.35% # Class of executed instruction. (Count)
system.cpu1.exec_context.thread_0.statExecutedInstType::SimdFloatSqrt            0      0.00%     75.35% # Class of executed instruction. (Count)
system.cpu1.exec_context.thread_0.statExecutedInstType::SimdReduceAdd            0      0.00%     75.35% # Class of executed instruction. (Count)
system.cpu1.exec_context.thread_0.statExecutedInstType::SimdReduceAlu            0      0.00%     75.35% # Class of executed instruction. (Count)
system.cpu1.exec_context.thread_0.statExecutedInstType::SimdReduceCmp            0      0.00%     75.35% # Class of executed instruction. (Count)
system.cpu1.exec_context.thread_0.statExecutedInstType::SimdFloatReduceAdd            0      0.00%     75.35% # Class of executed instruction. (Count)
system.cpu1.exec_context.thread_0.statExecutedInstType::SimdFloatReduceCmp            0      0.00%     75.35% # Class of executed instruction. (Count)
system.cpu1.exec_context.thread_0.statExecutedInstType::SimdAes            0      0.00%     75.35% # Class of executed instruction. (Count)
system.cpu1.exec_context.thread_0.statExecutedInstType::SimdAesMix            0      0.00%     75.35% # Class of executed instruction. (Count)
system.cpu1.exec_context.thread_0.statExecutedInstType::SimdSha1Hash            0      0.00%     75.35% # Class of executed instruction. (Count)
system.cpu1.exec_context.thread_0.statExecutedInstType::SimdSha1Hash2            0      0.00%     75.35% # Class of executed instruction. (Count)
system.cpu1.exec_context.thread_0.statExecutedInstType::SimdSha256Hash            0      0.00%     75.35% # Class of executed instruction. (Count)
system.cpu1.exec_context.thread_0.statExecutedInstType::SimdSha256Hash2            0      0.00%     75.35% # Class of executed instruction. (Count)
system.cpu1.exec_context.thread_0.statExecutedInstType::SimdShaSigma2            0      0.00%     75.35% # Class of executed instruction. (Count)
system.cpu1.exec_context.thread_0.statExecutedInstType::SimdShaSigma3            0      0.00%     75.35% # Class of executed instruction. (Count)
system.cpu1.exec_context.thread_0.statExecutedInstType::SimdPredAlu            0      0.00%     75.35% # Class of executed instruction. (Count)
system.cpu1.exec_context.thread_0.statExecutedInstType::MemRead       139508     21.47%     96.83% # Class of executed instruction. (Count)
system.cpu1.exec_context.thread_0.statExecutedInstType::MemWrite        14477      2.23%     99.05% # Class of executed instruction. (Count)
system.cpu1.exec_context.thread_0.statExecutedInstType::FloatMemRead         5589      0.86%     99.91% # Class of executed instruction. (Count)
system.cpu1.exec_context.thread_0.statExecutedInstType::FloatMemWrite          553      0.09%    100.00% # Class of executed instruction. (Count)
system.cpu1.exec_context.thread_0.statExecutedInstType::IprAccess            0      0.00%    100.00% # Class of executed instruction. (Count)
system.cpu1.exec_context.thread_0.statExecutedInstType::InstPrefetch            0      0.00%    100.00% # Class of executed instruction. (Count)
system.cpu1.exec_context.thread_0.statExecutedInstType::total       649714                       # Class of executed instruction. (Count)
system.cpu1.interrupts.clk_domain.clock          8000                       # Clock period in ticks (Tick)
system.cpu1.mmu.dtb.rdAccesses                 145097                       # TLB accesses on read requests (Count)
system.cpu1.mmu.dtb.wrAccesses                  15030                       # TLB accesses on write requests (Count)
system.cpu1.mmu.dtb.rdMisses                      153                       # TLB misses on read requests (Count)
system.cpu1.mmu.dtb.wrMisses                        2                       # TLB misses on write requests (Count)
system.cpu1.mmu.dtb.walker.power_state.pwrStateResidencyTicks::UNDEFINED 137682990000                       # Cumulative time (in ticks) in various power states (Tick)
system.cpu1.mmu.itb.rdAccesses                      0                       # TLB accesses on read requests (Count)
system.cpu1.mmu.itb.wrAccesses                 460821                       # TLB accesses on write requests (Count)
system.cpu1.mmu.itb.rdMisses                        0                       # TLB misses on read requests (Count)
system.cpu1.mmu.itb.wrMisses                      125                       # TLB misses on write requests (Count)
system.cpu1.mmu.itb.walker.power_state.pwrStateResidencyTicks::UNDEFINED 137682990000                       # Cumulative time (in ticks) in various power states (Tick)
system.cpu1.power_state.numTransitions              5                       # Number of power state transitions (Count)
system.cpu1.power_state.ticksClkGated::samples            3                       # Distribution of time spent in the clock gated state (Tick)
system.cpu1.power_state.ticksClkGated::mean 22094557333.333332                       # Distribution of time spent in the clock gated state (Tick)
system.cpu1.power_state.ticksClkGated::stdev 19804890580.567928                       # Distribution of time spent in the clock gated state (Tick)
system.cpu1.power_state.ticksClkGated::1000-5e+10            3    100.00%    100.00% # Distribution of time spent in the clock gated state (Tick)
system.cpu1.power_state.ticksClkGated::min_value    956451500                       # Distribution of time spent in the clock gated state (Tick)
system.cpu1.power_state.ticksClkGated::max_value  40221325000                       # Distribution of time spent in the clock gated state (Tick)
system.cpu1.power_state.ticksClkGated::total            3                       # Distribution of time spent in the clock gated state (Tick)
system.cpu1.power_state.pwrStateResidencyTicks::ON  71399318000                       # Cumulative time (in ticks) in various power states (Tick)
system.cpu1.power_state.pwrStateResidencyTicks::CLK_GATED  66283672000                       # Cumulative time (in ticks) in various power states (Tick)
system.cpu1.thread_0.numInsts                       0                       # Number of Instructions committed (Count)
system.cpu1.thread_0.numOps                         0                       # Number of Ops committed (Count)
system.cpu1.thread_0.numMemRefs                     0                       # Number of Memory References (Count)
system.cpu2.numCycles                       202832507                       # Number of cpu cycles simulated (Cycle)
system.cpu2.numWorkItemsStarted                     0                       # Number of work items this cpu started (Count)
system.cpu2.numWorkItemsCompleted                   0                       # Number of work items this cpu completed (Count)
system.cpu2.clk_domain.clock                      500                       # Clock period in ticks (Tick)
system.cpu2.clk_domain.voltage_domain.voltage            1                       # Voltage in Volts (Volt)
system.cpu2.exec_context.thread_0.numInsts      1316050                       # Number of instructions committed (Count)
system.cpu2.exec_context.thread_0.numOps      2484083                       # Number of ops (including micro ops) committed (Count)
system.cpu2.exec_context.thread_0.numIntAluAccesses      2361681                       # Number of integer alu accesses (Count)
system.cpu2.exec_context.thread_0.numFpAluAccesses       103780                       # Number of float alu accesses (Count)
system.cpu2.exec_context.thread_0.numVecAluAccesses            0                       # Number of vector alu accesses (Count)
system.cpu2.exec_context.thread_0.numCallsReturns        49254                       # Number of times a function call or return occured (Count)
system.cpu2.exec_context.thread_0.numCondCtrlInsts       191071                       # Number of instructions that are conditional controls (Count)
system.cpu2.exec_context.thread_0.numIntInsts      2361681                       # Number of integer instructions (Count)
system.cpu2.exec_context.thread_0.numFpInsts       103780                       # Number of float instructions (Count)
system.cpu2.exec_context.thread_0.numVecInsts            0                       # Number of vector instructions (Count)
system.cpu2.exec_context.thread_0.numIntRegReads      3572967                       # Number of times the integer registers were read (Count)
system.cpu2.exec_context.thread_0.numIntRegWrites      1834356                       # Number of times the integer registers were written (Count)
system.cpu2.exec_context.thread_0.numFpRegReads       124697                       # Number of times the floating registers were read (Count)
system.cpu2.exec_context.thread_0.numFpRegWrites        72508                       # Number of times the floating registers were written (Count)
system.cpu2.exec_context.thread_0.numVecRegReads            0                       # Number of times the vector registers were read (Count)
system.cpu2.exec_context.thread_0.numVecRegWrites            0                       # Number of times the vector registers were written (Count)
system.cpu2.exec_context.thread_0.numVecPredRegReads            0                       # Number of times the predicate registers were read (Count)
system.cpu2.exec_context.thread_0.numVecPredRegWrites            0                       # Number of times the predicate registers were written (Count)
system.cpu2.exec_context.thread_0.numCCRegReads      1390906                       # Number of times the CC registers were read (Count)
system.cpu2.exec_context.thread_0.numCCRegWrites       726147                       # Number of times the CC registers were written (Count)
system.cpu2.exec_context.thread_0.numMiscRegReads      1121400                       # Number of times the Misc registers were read (Count)
system.cpu2.exec_context.thread_0.numMiscRegWrites          212                       # Number of times the Misc registers were written (Count)
system.cpu2.exec_context.thread_0.numMemRefs       549726                       # Number of memory refs (Count)
system.cpu2.exec_context.thread_0.numLoadInsts       321066                       # Number of load instructions (Count)
system.cpu2.exec_context.thread_0.numStoreInsts       228660                       # Number of store instructions (Count)
system.cpu2.exec_context.thread_0.numIdleCycles 197287934.622513                       # Number of idle cycles (Cycle)
system.cpu2.exec_context.thread_0.numBusyCycles 5544572.377487                       # Number of busy cycles (Cycle)
system.cpu2.exec_context.thread_0.notIdleFraction     0.027336                       # Percentage of non-idle cycles (Ratio)
system.cpu2.exec_context.thread_0.idleFraction     0.972664                       # Percentage of idle cycles (Ratio)
system.cpu2.exec_context.thread_0.numBranches       271611                       # Number of branches fetched (Count)
system.cpu2.exec_context.thread_0.statExecutedInstType::No_OpClass        36464      1.47%      1.47% # Class of executed instruction. (Count)
system.cpu2.exec_context.thread_0.statExecutedInstType::IntAlu      1839953     74.02%     75.48% # Class of executed instruction. (Count)
system.cpu2.exec_context.thread_0.statExecutedInstType::IntMult         1053      0.04%     75.52% # Class of executed instruction. (Count)
system.cpu2.exec_context.thread_0.statExecutedInstType::IntDiv          645      0.03%     75.55% # Class of executed instruction. (Count)
system.cpu2.exec_context.thread_0.statExecutedInstType::FloatAdd         9313      0.37%     75.92% # Class of executed instruction. (Count)
system.cpu2.exec_context.thread_0.statExecutedInstType::FloatCmp            3      0.00%     75.93% # Class of executed instruction. (Count)
system.cpu2.exec_context.thread_0.statExecutedInstType::FloatCvt          322      0.01%     75.94% # Class of executed instruction. (Count)
system.cpu2.exec_context.thread_0.statExecutedInstType::FloatMult            1      0.00%     75.94% # Class of executed instruction. (Count)
system.cpu2.exec_context.thread_0.statExecutedInstType::FloatMultAcc            0      0.00%     75.94% # Class of executed instruction. (Count)
system.cpu2.exec_context.thread_0.statExecutedInstType::FloatDiv            1      0.00%     75.94% # Class of executed instruction. (Count)
system.cpu2.exec_context.thread_0.statExecutedInstType::FloatMisc            0      0.00%     75.94% # Class of executed instruction. (Count)
system.cpu2.exec_context.thread_0.statExecutedInstType::FloatSqrt            0      0.00%     75.94% # Class of executed instruction. (Count)
system.cpu2.exec_context.thread_0.statExecutedInstType::SimdAdd          314      0.01%     75.95% # Class of executed instruction. (Count)
system.cpu2.exec_context.thread_0.statExecutedInstType::SimdAddAcc            0      0.00%     75.95% # Class of executed instruction. (Count)
system.cpu2.exec_context.thread_0.statExecutedInstType::SimdAlu        16938      0.68%     76.63% # Class of executed instruction. (Count)
system.cpu2.exec_context.thread_0.statExecutedInstType::SimdCmp           12      0.00%     76.63% # Class of executed instruction. (Count)
system.cpu2.exec_context.thread_0.statExecutedInstType::SimdCvt          350      0.01%     76.65% # Class of executed instruction. (Count)
system.cpu2.exec_context.thread_0.statExecutedInstType::SimdMisc         5885      0.24%     76.88% # Class of executed instruction. (Count)
system.cpu2.exec_context.thread_0.statExecutedInstType::SimdMult            0      0.00%     76.88% # Class of executed instruction. (Count)
system.cpu2.exec_context.thread_0.statExecutedInstType::SimdMultAcc            0      0.00%     76.88% # Class of executed instruction. (Count)
system.cpu2.exec_context.thread_0.statExecutedInstType::SimdShift          157      0.01%     76.89% # Class of executed instruction. (Count)
system.cpu2.exec_context.thread_0.statExecutedInstType::SimdShiftAcc            0      0.00%     76.89% # Class of executed instruction. (Count)
system.cpu2.exec_context.thread_0.statExecutedInstType::SimdDiv            0      0.00%     76.89% # Class of executed instruction. (Count)
system.cpu2.exec_context.thread_0.statExecutedInstType::SimdSqrt            0      0.00%     76.89% # Class of executed instruction. (Count)
system.cpu2.exec_context.thread_0.statExecutedInstType::SimdFloatAdd         5113      0.21%     77.10% # Class of executed instruction. (Count)
system.cpu2.exec_context.thread_0.statExecutedInstType::SimdFloatAlu            0      0.00%     77.10% # Class of executed instruction. (Count)
system.cpu2.exec_context.thread_0.statExecutedInstType::SimdFloatCmp            0      0.00%     77.10% # Class of executed instruction. (Count)
system.cpu2.exec_context.thread_0.statExecutedInstType::SimdFloatCvt        14545      0.59%     77.68% # Class of executed instruction. (Count)
system.cpu2.exec_context.thread_0.statExecutedInstType::SimdFloatDiv            4      0.00%     77.68% # Class of executed instruction. (Count)
system.cpu2.exec_context.thread_0.statExecutedInstType::SimdFloatMisc            0      0.00%     77.68% # Class of executed instruction. (Count)
system.cpu2.exec_context.thread_0.statExecutedInstType::SimdFloatMult         5115      0.21%     77.89% # Class of executed instruction. (Count)
system.cpu2.exec_context.thread_0.statExecutedInstType::SimdFloatMultAcc            0      0.00%     77.89% # Class of executed instruction. (Count)
system.cpu2.exec_context.thread_0.statExecutedInstType::SimdFloatSqrt            0      0.00%     77.89% # Class of executed instruction. (Count)
system.cpu2.exec_context.thread_0.statExecutedInstType::SimdReduceAdd            0      0.00%     77.89% # Class of executed instruction. (Count)
system.cpu2.exec_context.thread_0.statExecutedInstType::SimdReduceAlu            0      0.00%     77.89% # Class of executed instruction. (Count)
system.cpu2.exec_context.thread_0.statExecutedInstType::SimdReduceCmp            0      0.00%     77.89% # Class of executed instruction. (Count)
system.cpu2.exec_context.thread_0.statExecutedInstType::SimdFloatReduceAdd            0      0.00%     77.89% # Class of executed instruction. (Count)
system.cpu2.exec_context.thread_0.statExecutedInstType::SimdFloatReduceCmp            0      0.00%     77.89% # Class of executed instruction. (Count)
system.cpu2.exec_context.thread_0.statExecutedInstType::SimdAes            0      0.00%     77.89% # Class of executed instruction. (Count)
system.cpu2.exec_context.thread_0.statExecutedInstType::SimdAesMix            0      0.00%     77.89% # Class of executed instruction. (Count)
system.cpu2.exec_context.thread_0.statExecutedInstType::SimdSha1Hash            0      0.00%     77.89% # Class of executed instruction. (Count)
system.cpu2.exec_context.thread_0.statExecutedInstType::SimdSha1Hash2            0      0.00%     77.89% # Class of executed instruction. (Count)
system.cpu2.exec_context.thread_0.statExecutedInstType::SimdSha256Hash            0      0.00%     77.89% # Class of executed instruction. (Count)
system.cpu2.exec_context.thread_0.statExecutedInstType::SimdSha256Hash2            0      0.00%     77.89% # Class of executed instruction. (Count)
system.cpu2.exec_context.thread_0.statExecutedInstType::SimdShaSigma2            0      0.00%     77.89% # Class of executed instruction. (Count)
system.cpu2.exec_context.thread_0.statExecutedInstType::SimdShaSigma3            0      0.00%     77.89% # Class of executed instruction. (Count)
system.cpu2.exec_context.thread_0.statExecutedInstType::SimdPredAlu            0      0.00%     77.89% # Class of executed instruction. (Count)
system.cpu2.exec_context.thread_0.statExecutedInstType::MemRead       297208     11.96%     89.84% # Class of executed instruction. (Count)
system.cpu2.exec_context.thread_0.statExecutedInstType::MemWrite       207340      8.34%     98.18% # Class of executed instruction. (Count)
system.cpu2.exec_context.thread_0.statExecutedInstType::FloatMemRead        23858      0.96%     99.14% # Class of executed instruction. (Count)
system.cpu2.exec_context.thread_0.statExecutedInstType::FloatMemWrite        21320      0.86%    100.00% # Class of executed instruction. (Count)
system.cpu2.exec_context.thread_0.statExecutedInstType::IprAccess            0      0.00%    100.00% # Class of executed instruction. (Count)
system.cpu2.exec_context.thread_0.statExecutedInstType::InstPrefetch            0      0.00%    100.00% # Class of executed instruction. (Count)
system.cpu2.exec_context.thread_0.statExecutedInstType::total      2485914                       # Class of executed instruction. (Count)
system.cpu2.interrupts.clk_domain.clock          8000                       # Clock period in ticks (Tick)
system.cpu2.mmu.dtb.rdAccesses                 321082                       # TLB accesses on read requests (Count)
system.cpu2.mmu.dtb.wrAccesses                 228923                       # TLB accesses on write requests (Count)
system.cpu2.mmu.dtb.rdMisses                      800                       # TLB misses on read requests (Count)
system.cpu2.mmu.dtb.wrMisses                      150                       # TLB misses on write requests (Count)
system.cpu2.mmu.dtb.walker.power_state.pwrStateResidencyTicks::UNDEFINED 137682990000                       # Cumulative time (in ticks) in various power states (Tick)
system.cpu2.mmu.itb.rdAccesses                      0                       # TLB accesses on read requests (Count)
system.cpu2.mmu.itb.wrAccesses                1786796                       # TLB accesses on write requests (Count)
system.cpu2.mmu.itb.rdMisses                        0                       # TLB misses on read requests (Count)
system.cpu2.mmu.itb.wrMisses                      316                       # TLB misses on write requests (Count)
system.cpu2.mmu.itb.walker.power_state.pwrStateResidencyTicks::UNDEFINED 137682990000                       # Cumulative time (in ticks) in various power states (Tick)
system.cpu2.power_state.numTransitions              5                       # Number of power state transitions (Count)
system.cpu2.power_state.ticksClkGated::samples            3                       # Distribution of time spent in the clock gated state (Tick)
system.cpu2.power_state.ticksClkGated::mean 12370290666.666666                       # Distribution of time spent in the clock gated state (Tick)
system.cpu2.power_state.ticksClkGated::stdev 20698720089.864624                       # Distribution of time spent in the clock gated state (Tick)
system.cpu2.power_state.ticksClkGated::1000-5e+10            3    100.00%    100.00% # Distribution of time spent in the clock gated state (Tick)
system.cpu2.power_state.ticksClkGated::min_value     25935500                       # Distribution of time spent in the clock gated state (Tick)
system.cpu2.power_state.ticksClkGated::max_value  36266736500                       # Distribution of time spent in the clock gated state (Tick)
system.cpu2.power_state.ticksClkGated::total            3                       # Distribution of time spent in the clock gated state (Tick)
system.cpu2.power_state.pwrStateResidencyTicks::ON 100572118000                       # Cumulative time (in ticks) in various power states (Tick)
system.cpu2.power_state.pwrStateResidencyTicks::CLK_GATED  37110872000                       # Cumulative time (in ticks) in various power states (Tick)
system.cpu2.thread_0.numInsts                       0                       # Number of Instructions committed (Count)
system.cpu2.thread_0.numOps                         0                       # Number of Ops committed (Count)
system.cpu2.thread_0.numMemRefs                     0                       # Number of Memory References (Count)
system.cpu3.allLatencyDist::bucket_size         10000                       # delay distribution for all (Unspecified)
system.cpu3.allLatencyDist::min_bucket              0                       # delay distribution for all (Unspecified)
system.cpu3.allLatencyDist::max_bucket        1600000                       # delay distribution for all (Unspecified)
system.cpu3.allLatencyDist::samples             31250                       # delay distribution for all (Unspecified)
system.cpu3.allLatencyDist::mean         1538303.872000                       # delay distribution for all (Unspecified)
system.cpu3.allLatencyDist::stdev        925322.230018                       # delay distribution for all (Unspecified)
system.cpu3.allLatencyDist::underflows              0      0.00%      0.00% # delay distribution for all (Unspecified)
system.cpu3.allLatencyDist               |           0      0.00%      0.00% |           0      0.00%      0.00% |           0      0.00%      0.00% |           0      0.00%      0.00% |           0      0.00%      0.00% |           0      0.00%      0.00% |           0      0.00%      0.00% |           0      0.00%      0.00% |           0      0.00%      0.00% |           0      0.00%      0.00% |           0      0.00%      0.00% |           0      0.00%      0.00% |           0      0.00%      0.00% |           0      0.00%      0.00% |           0      0.00%      0.00% |           0      0.00%      0.00% |           0      0.00%      0.00% |           0      0.00%      0.00% |           0      0.00%      0.00% |         138      0.44%      0.44% |          24      0.08%      0.52% |         144      0.46%      0.98% |          81      0.26%      1.24% |         149      0.48%      1.72% |          89      0.28%      2.00% |         132      0.42%      2.42% |         128      0.41%      2.83% |         115      0.37%      3.20% |         148      0.47%      3.67% |         135      0.43%      4.11% |         166      0.53%      4.64% |         121      0.39%      5.02% |         140      0.45%      5.47% |         107      0.34%      5.81% |         135      0.43%      6.25% |         144      0.46%      6.71% |         138      0.44%      7.15% |         180      0.58%      7.72% |         145      0.46%      8.19% |         154      0.49%      8.68% |         161      0.52%      9.20% |         165      0.53%      9.72% |         182      0.58%     10.31% |         183      0.59%     10.89% |         175      0.56%     11.45% |         163      0.52%     11.97% |         163      0.52%     12.50% |         154      0.49%     12.99% |         195      0.62%     13.61% |         184      0.59%     14.20% |         195      0.62%     14.83% |         175      0.56%     15.39% |         177      0.57%     15.95% |         196      0.63%     16.58% |         179      0.57%     17.15% |         208      0.67%     17.82% |         182      0.58%     18.40% |         188      0.60%     19.00% |         158      0.51%     19.51% |         167      0.53%     20.04% |         165      0.53%     20.57% |         152      0.49%     21.06% |         169      0.54%     21.60% |         156      0.50%     22.10% |         157      0.50%     22.60% |         160      0.51%     23.11% |         147      0.47%     23.58% |         154      0.49%     24.07% |         175      0.56%     24.63% |         139      0.44%     25.08% |         120      0.38%     25.46% |         124      0.40%     25.86% |         117      0.37%     26.23% |         110      0.35%     26.59% |         133      0.43%     27.01% |         110      0.35%     27.36% |         112      0.36%     27.72% |         111      0.36%     28.08% |         107      0.34%     28.42% |         100      0.32%     28.74% |          78      0.25%     28.99% |          88      0.28%     29.27% |          86      0.28%     29.55% |         103      0.33%     29.88% |          88      0.28%     30.16% |          79      0.25%     30.41% |          79      0.25%     30.66% |          68      0.22%     30.88% |          58      0.19%     31.07% |          68      0.22%     31.28% |          52      0.17%     31.45% |          74      0.24%     31.69% |          63      0.20%     31.89% |          62      0.20%     32.09% |          46      0.15%     32.23% |          60      0.19%     32.43% |          59      0.19%     32.61% |          45      0.14%     32.76% |          45      0.14%     32.90% |          62      0.20%     33.10% |          38      0.12%     33.22% |          46      0.15%     33.37% |          45      0.14%     33.51% |          78      0.25%     33.76% |          49      0.16%     33.92% |          50      0.16%     34.08% |          59      0.19%     34.27% |          66      0.21%     34.48% |          66      0.21%     34.69% |          79      0.25%     34.94% |          46      0.15%     35.09% |          79      0.25%     35.34% |          85      0.27%     35.62% |          93      0.30%     35.91% |         109      0.35%     36.26% |         105      0.34%     36.60% |         301      0.96%     37.56% |         182      0.58%     38.14% |         184      0.59%     38.73% |         201      0.64%     39.38% |         182      0.58%     39.96% |         178      0.57%     40.53% |         164      0.52%     41.05% |         185      0.59%     41.64% |         180      0.58%     42.22% |         198      0.63%     42.85% |         219      0.70%     43.56% |         179      0.57%     44.13% |         161      0.52%     44.64% |         174      0.56%     45.20% |         173      0.55%     45.75% |         179      0.57%     46.33% |         167      0.53%     46.86% |         186      0.60%     47.46% |         191      0.61%     48.07% |         171      0.55%     48.61% |         175      0.56%     49.17% |         195      0.62%     49.80% |         176      0.56%     50.36% |         162      0.52%     50.88% |         176      0.56%     51.44% |         153      0.49%     51.93% |         164      0.52%     52.46% |         125      0.40%     52.86% |         132      0.42%     53.28% |         125      0.40%     53.68% |         149      0.48%     54.16% |         119      0.38%     54.54% |         110      0.35%     54.89% |         117      0.37%     55.26% |         119      0.38%     55.64% |          95      0.30%     55.95% |         117      0.37%     56.32% |         119      0.38%     56.70% |         102      0.33%     57.03% |         109      0.35%     57.38% |          85      0.27%     57.65% |          88      0.28%     57.93% |          89      0.28%     58.22% |          82      0.26%     58.48% |          11      0.04%     58.52% # delay distribution for all (Unspecified)
system.cpu3.allLatencyDist::overflows           12964     41.48%    100.00% # delay distribution for all (Unspecified)
system.cpu3.allLatencyDist::min_value          193000                       # delay distribution for all (Unspecified)
system.cpu3.allLatencyDist::max_value         6144000                       # delay distribution for all (Unspecified)
system.cpu3.allLatencyDist::total               31250                       # delay distribution for all (Unspecified)
system.cpu3.loadLatencyDist::bucket_size        10000                       # delay distribution for loads (Unspecified)
system.cpu3.loadLatencyDist::min_bucket             0                       # delay distribution for loads (Unspecified)
system.cpu3.loadLatencyDist::max_bucket       1600000                       # delay distribution for loads (Unspecified)
system.cpu3.loadLatencyDist::samples            15625                       # delay distribution for loads (Unspecified)
system.cpu3.loadLatencyDist::mean        2177995.520000                       # delay distribution for loads (Unspecified)
system.cpu3.loadLatencyDist::stdev       803616.502973                       # delay distribution for loads (Unspecified)
system.cpu3.loadLatencyDist::underflows             0      0.00%      0.00% # delay distribution for loads (Unspecified)
system.cpu3.loadLatencyDist              |           0      0.00%      0.00% |           0      0.00%      0.00% |           0      0.00%      0.00% |           0      0.00%      0.00% |           0      0.00%      0.00% |           0      0.00%      0.00% |           0      0.00%      0.00% |           0      0.00%      0.00% |           0      0.00%      0.00% |           0      0.00%      0.00% |           0      0.00%      0.00% |           0      0.00%      0.00% |           0      0.00%      0.00% |           0      0.00%      0.00% |           0      0.00%      0.00% |           0      0.00%      0.00% |           0      0.00%      0.00% |           0      0.00%      0.00% |           0      0.00%      0.00% |           0      0.00%      0.00% |           0      0.00%      0.00% |           0      0.00%      0.00% |           0      0.00%      0.00% |           0      0.00%      0.00% |           0      0.00%      0.00% |           0      0.00%      0.00% |           0      0.00%      0.00% |           0      0.00%      0.00% |           0      0.00%      0.00% |           0      0.00%      0.00% |           5      0.03%      0.03% |           8      0.05%      0.08% |           6      0.04%      0.12% |           8      0.05%      0.17% |           9      0.06%      0.23% |           5      0.03%      0.26% |           2      0.01%      0.28% |           8      0.05%      0.33% |          10      0.06%      0.39% |           9      0.06%      0.45% |           8      0.05%      0.50% |          10      0.06%      0.56% |          16      0.10%      0.67% |          13      0.08%      0.75% |          15      0.10%      0.84% |          13      0.08%      0.93% |          16      0.10%      1.03% |          10      0.06%      1.09% |          15      0.10%      1.19% |          17      0.11%      1.30% |          12      0.08%      1.38% |          23      0.15%      1.52% |          16      0.10%      1.63% |          30      0.19%      1.82% |          26      0.17%      1.98% |          22      0.14%      2.12% |          23      0.15%      2.27% |          25      0.16%      2.43% |          15      0.10%      2.53% |           9      0.06%      2.59% |          20      0.13%      2.71% |          18      0.12%      2.83% |          16      0.10%      2.93% |          15      0.10%      3.03% |          24      0.15%      3.18% |          31      0.20%      3.38% |          27      0.17%      3.55% |          19      0.12%      3.67% |          34      0.22%      3.89% |          24      0.15%      4.04% |          30      0.19%      4.24% |          27      0.17%      4.41% |          17      0.11%      4.52% |          20      0.13%      4.65% |          35      0.22%      4.87% |          25      0.16%      5.03% |          22      0.14%      5.17% |          30      0.19%      5.36% |          34      0.22%      5.58% |          23      0.15%      5.73% |          15      0.10%      5.82% |          23      0.15%      5.97% |          21      0.13%      6.11% |          43      0.28%      6.38% |          31      0.20%      6.58% |          26      0.17%      6.75% |          29      0.19%      6.93% |          24      0.15%      7.08% |          17      0.11%      7.19% |          21      0.13%      7.33% |           4      0.03%      7.35% |          21      0.13%      7.49% |          23      0.15%      7.64% |          23      0.15%      7.78% |          21      0.13%      7.92% |          22      0.14%      8.06% |          20      0.13%      8.19% |          16      0.10%      8.29% |          15      0.10%      8.38% |          22      0.14%      8.52% |           8      0.05%      8.58% |           8      0.05%      8.63% |          12      0.08%      8.70% |          24      0.15%      8.86% |           9      0.06%      8.92% |          10      0.06%      8.98% |          11      0.07%      9.05% |          18      0.12%      9.16% |          20      0.13%      9.29% |          14      0.09%      9.38% |           9      0.06%      9.44% |          24      0.15%      9.59% |          27      0.17%      9.77% |          13      0.08%      9.85% |           9      0.06%      9.91% |          17      0.11%     10.02% |          21      0.13%     10.15% |          13      0.08%     10.23% |          10      0.06%     10.30% |          18      0.12%     10.41% |          12      0.08%     10.49% |          19      0.12%     10.61% |          21      0.13%     10.75% |          23      0.15%     10.89% |          17      0.11%     11.00% |          23      0.15%     11.15% |          48      0.31%     11.46% |          40      0.26%     11.71% |          36      0.23%     11.94% |          52      0.33%     12.28% |          48      0.31%     12.58% |          40      0.26%     12.84% |          52      0.33%     13.17% |          62      0.40%     13.57% |          65      0.42%     13.98% |          61      0.39%     14.37% |          71      0.45%     14.83% |          93      0.60%     15.42% |          64      0.41%     15.83% |          80      0.51%     16.35% |          71      0.45%     16.80% |          71      0.45%     17.25% |          83      0.53%     17.79% |          73      0.47%     18.25% |          59      0.38%     18.63% |          79      0.51%     19.14% |          83      0.53%     19.67% |          68      0.44%     20.10% |          64      0.41%     20.51% |          62      0.40%     20.91% |          78      0.50%     21.41% |          60      0.38%     21.79% |          72      0.46%     22.25% |          79      0.51%     22.76% |          64      0.41%     23.17% |          61      0.39%     23.56% |          43      0.28%     23.83% |          60      0.38%     24.22% |          61      0.39%     24.61% |          60      0.38%     24.99% |           8      0.05%     25.04% # delay distribution for loads (Unspecified)
system.cpu3.loadLatencyDist::overflows          11712     74.96%    100.00% # delay distribution for loads (Unspecified)
system.cpu3.loadLatencyDist::min_value         304000                       # delay distribution for loads (Unspecified)
system.cpu3.loadLatencyDist::max_value        6144000                       # delay distribution for loads (Unspecified)
system.cpu3.loadLatencyDist::total              15625                       # delay distribution for loads (Unspecified)
system.cpu3.storeLatencyDist::bucket_size        10000                       # delay distribution for stores (Unspecified)
system.cpu3.storeLatencyDist::min_bucket            0                       # delay distribution for stores (Unspecified)
system.cpu3.storeLatencyDist::max_bucket      1600000                       # delay distribution for stores (Unspecified)
system.cpu3.storeLatencyDist::samples           15625                       # delay distribution for stores (Unspecified)
system.cpu3.storeLatencyDist::mean       898612.224000                       # delay distribution for stores (Unspecified)
system.cpu3.storeLatencyDist::stdev      498231.458119                       # delay distribution for stores (Unspecified)
system.cpu3.storeLatencyDist::underflows            0      0.00%      0.00% # delay distribution for stores (Unspecified)
system.cpu3.storeLatencyDist             |           0      0.00%      0.00% |           0      0.00%      0.00% |           0      0.00%      0.00% |           0      0.00%      0.00% |           0      0.00%      0.00% |           0      0.00%      0.00% |           0      0.00%      0.00% |           0      0.00%      0.00% |           0      0.00%      0.00% |           0      0.00%      0.00% |           0      0.00%      0.00% |           0      0.00%      0.00% |           0      0.00%      0.00% |           0      0.00%      0.00% |           0      0.00%      0.00% |           0      0.00%      0.00% |           0      0.00%      0.00% |           0      0.00%      0.00% |           0      0.00%      0.00% |         138      0.88%      0.88% |          24      0.15%      1.04% |         144      0.92%      1.96% |          81      0.52%      2.48% |         149      0.95%      3.43% |          89      0.57%      4.00% |         132      0.84%      4.84% |         128      0.82%      5.66% |         115      0.74%      6.40% |         148      0.95%      7.35% |         135      0.86%      8.21% |         161      1.03%      9.24% |         113      0.72%      9.96% |         134      0.86%     10.82% |          99      0.63%     11.46% |         126      0.81%     12.26% |         139      0.89%     13.15% |         136      0.87%     14.02% |         172      1.10%     15.12% |         135      0.86%     15.99% |         145      0.93%     16.92% |         153      0.98%     17.89% |         155      0.99%     18.89% |         166      1.06%     19.95% |         170      1.09%     21.04% |         160      1.02%     22.06% |         150      0.96%     23.02% |         147      0.94%     23.96% |         144      0.92%     24.88% |         180      1.15%     26.04% |         167      1.07%     27.10% |         183      1.17%     28.28% |         152      0.97%     29.25% |         161      1.03%     30.28% |         166      1.06%     31.34% |         153      0.98%     32.32% |         186      1.19%     33.51% |         159      1.02%     34.53% |         163      1.04%     35.57% |         143      0.92%     36.49% |         158      1.01%     37.50% |         145      0.93%     38.43% |         134      0.86%     39.28% |         153      0.98%     40.26% |         141      0.90%     41.16% |         133      0.85%     42.02% |         129      0.83%     42.84% |         120      0.77%     43.61% |         135      0.86%     44.47% |         141      0.90%     45.38% |         115      0.74%     46.11% |          90      0.58%     46.69% |          97      0.62%     47.31% |         100      0.64%     47.95% |          90      0.58%     48.52% |          98      0.63%     49.15% |          85      0.54%     49.70% |          90      0.58%     50.27% |          81      0.52%     50.79% |          73      0.47%     51.26% |          77      0.49%     51.75% |          63      0.40%     52.15% |          65      0.42%     52.57% |          65      0.42%     52.99% |          60      0.38%     53.37% |          57      0.36%     53.73% |          53      0.34%     54.07% |          50      0.32%     54.39% |          44      0.28%     54.68% |          41      0.26%     54.94% |          47      0.30%     55.24% |          48      0.31%     55.55% |          53      0.34%     55.88% |          40      0.26%     56.14% |          39      0.25%     56.39% |          25      0.16%     56.55% |          38      0.24%     56.79% |          39      0.25%     57.04% |          29      0.19%     57.23% |          30      0.19%     57.42% |          40      0.26%     57.68% |          30      0.19%     57.87% |          38      0.24%     58.11% |          33      0.21%     58.32% |          54      0.35%     58.67% |          40      0.26%     58.92% |          40      0.26%     59.18% |          48      0.31%     59.49% |          48      0.31%     59.80% |          46      0.29%     60.09% |          65      0.42%     60.51% |          37      0.24%     60.74% |          55      0.35%     61.09% |          58      0.37%     61.47% |          80      0.51%     61.98% |         100      0.64%     62.62% |          88      0.56%     63.18% |         280      1.79%     64.97% |         169      1.08%     66.05% |         174      1.11%     67.17% |         183      1.17%     68.34% |         170      1.09%     69.43% |         159      1.02%     70.44% |         143      0.92%     71.36% |         162      1.04%     72.40% |         163      1.04%     73.44% |         175      1.12%     74.56% |         171      1.09%     75.65% |         139      0.89%     76.54% |         125      0.80%     77.34% |         122      0.78%     78.12% |         125      0.80%     78.92% |         139      0.89%     79.81% |         115      0.74%     80.55% |         124      0.79%     81.34% |         126      0.81%     82.15% |         110      0.70%     82.85% |         104      0.67%     83.52% |         102      0.65%     84.17% |         112      0.72%     84.89% |          82      0.52%     85.41% |         105      0.67%     86.09% |          82      0.52%     86.61% |          81      0.52%     87.13% |          52      0.33%     87.46% |          73      0.47%     87.93% |          46      0.29%     88.22% |          66      0.42%     88.65% |          51      0.33%     88.97% |          46      0.29%     89.27% |          55      0.35%     89.62% |          41      0.26%     89.88% |          35      0.22%     90.11% |          45      0.29%     90.39% |          40      0.26%     90.65% |          38      0.24%     90.89% |          48      0.31%     91.20% |          42      0.27%     91.47% |          28      0.18%     91.65% |          28      0.18%     91.83% |          22      0.14%     91.97% |           3      0.02%     91.99% # delay distribution for stores (Unspecified)
system.cpu3.storeLatencyDist::overflows          1252      8.01%    100.00% # delay distribution for stores (Unspecified)
system.cpu3.storeLatencyDist::min_value        193000                       # delay distribution for stores (Unspecified)
system.cpu3.storeLatencyDist::max_value       3296000                       # delay distribution for stores (Unspecified)
system.cpu3.storeLatencyDist::total             15625                       # delay distribution for stores (Unspecified)
system.cpu3.initToCoalesceLatency::bucket_size        10000                       # Ticks from vmem inst initiateAcc to coalescer issue (Unspecified)
system.cpu3.initToCoalesceLatency::min_bucket            0                       # Ticks from vmem inst initiateAcc to coalescer issue (Unspecified)
system.cpu3.initToCoalesceLatency::max_bucket      1600000                       # Ticks from vmem inst initiateAcc to coalescer issue (Unspecified)
system.cpu3.initToCoalesceLatency::samples            0                       # Ticks from vmem inst initiateAcc to coalescer issue (Unspecified)
system.cpu3.initToCoalesceLatency::mean           nan                       # Ticks from vmem inst initiateAcc to coalescer issue (Unspecified)
system.cpu3.initToCoalesceLatency::stdev          nan                       # Ticks from vmem inst initiateAcc to coalescer issue (Unspecified)
system.cpu3.initToCoalesceLatency::underflows            0                       # Ticks from vmem inst initiateAcc to coalescer issue (Unspecified)
system.cpu3.initToCoalesceLatency        |           0                       |           0                       |           0                       |           0                       |           0                       |           0                       |           0                       |           0                       |           0                       |           0                       |           0                       |           0                       |           0                       |           0                       |           0                       |           0                       |           0                       |           0                       |           0                       |           0                       |           0                       |           0                       |           0                       |           0                       |           0                       |           0                       |           0                       |           0                       |           0                       |           0                       |           0                       |           0                       |           0                       |           0                       |           0                       |           0                       |           0                       |           0                       |           0                       |           0                       |           0                       |           0                       |           0                       |           0                       |           0                       |           0                       |           0                       |           0                       |           0                       |           0                       |           0                       |           0                       |           0                       |           0                       |           0                       |           0                       |           0                       |           0                       |           0                       |           0                       |           0                       |           0                       |           0                       |           0                       |           0                       |           0                       |           0                       |           0                       |           0                       |           0                       |           0                       |           0                       |           0                       |           0                       |           0                       |           0                       |           0                       |           0                       |           0                       |           0                       |           0                       |           0                       |           0                       |           0                       |           0                       |           0                       |           0                       |           0                       |           0                       |           0                       |           0                       |           0                       |           0                       |           0                       |           0                       |           0                       |           0                       |           0                       |           0                       |           0                       |           0                       |           0                       |           0                       |           0                       |           0                       |           0                       |           0                       |           0                       |           0                       |           0                       |           0                       |           0                       |           0                       |           0                       |           0                       |           0                       |           0                       |           0                       |           0                       |           0                       |           0                       |           0                       |           0                       |           0                       |           0                       |           0                       |           0                       |           0                       |           0                       |           0                       |           0                       |           0                       |           0                       |           0                       |           0                       |           0                       |           0                       |           0                       |           0                       |           0                       |           0                       |           0                       |           0                       |           0                       |           0                       |           0                       |           0                       |           0                       |           0                       |           0                       |           0                       |           0                       |           0                       |           0                       |           0                       |           0                       |           0                       |           0                       |           0                       |           0                       |           0                       # Ticks from vmem inst initiateAcc to coalescer issue (Unspecified)
system.cpu3.initToCoalesceLatency::overflows            0                       # Ticks from vmem inst initiateAcc to coalescer issue (Unspecified)
system.cpu3.initToCoalesceLatency::min_value            0                       # Ticks from vmem inst initiateAcc to coalescer issue (Unspecified)
system.cpu3.initToCoalesceLatency::max_value            0                       # Ticks from vmem inst initiateAcc to coalescer issue (Unspecified)
system.cpu3.initToCoalesceLatency::total            0                       # Ticks from vmem inst initiateAcc to coalescer issue (Unspecified)
system.cpu3.rubyNetworkLatency::bucket_size        10000                       # Ticks from coalescer issue to coalescer hit callback (Unspecified)
system.cpu3.rubyNetworkLatency::min_bucket            0                       # Ticks from coalescer issue to coalescer hit callback (Unspecified)
system.cpu3.rubyNetworkLatency::max_bucket      1600000                       # Ticks from coalescer issue to coalescer hit callback (Unspecified)
system.cpu3.rubyNetworkLatency::samples             0                       # Ticks from coalescer issue to coalescer hit callback (Unspecified)
system.cpu3.rubyNetworkLatency::mean              nan                       # Ticks from coalescer issue to coalescer hit callback (Unspecified)
system.cpu3.rubyNetworkLatency::stdev             nan                       # Ticks from coalescer issue to coalescer hit callback (Unspecified)
system.cpu3.rubyNetworkLatency::underflows            0                       # Ticks from coalescer issue to coalescer hit callback (Unspecified)
[...]
system.cpu3.cacheBlockRoundTrip7::overflows            0                       # Coalsr-to-coalsr time for the Nth cache block in an inst (Unspecified)
system.cpu3.cacheBlockRoundTrip7::min_value            0                       # Coalsr-to-coalsr time for the Nth cache block in an inst (Unspecified)
system.cpu3.cacheBlockRoundTrip7::max_value            0                       # Coalsr-to-coalsr time for the Nth cache block in an inst (Unspecified)
system.cpu3.cacheBlockRoundTrip7::total             0                       # Coalsr-to-coalsr time for the Nth cache block in an inst (Unspecified)
system.cpu3.cacheBlockRoundTrip8::bucket_size        10000                       # Coalsr-to-coalsr time for the Nth cache block in an inst (Unspecified)
system.cpu3.cacheBlockRoundTrip8::min_bucket            0                       # Coalsr-to-coalsr time for the Nth cache block in an inst (Unspecified)
system.cpu3.cacheBlockRoundTrip8::max_bucket      1600000                       # Coalsr-to-coalsr time for the Nth cache block in an inst (Unspecified)
system.cpu3.cacheBlockRoundTrip8::samples            0                       # Coalsr-to-coalsr time for the Nth cache block in an inst (Unspecified)
system.cpu3.cacheBlockRoundTrip8::mean            nan                       # Coalsr-to-coalsr time for the Nth cache block in an inst (Unspecified)
system.cpu3.cacheBlockRoundTrip8::stdev           nan                       # Coalsr-to-coalsr time for the Nth cache block in an inst (Unspecified)
system.cpu3.cacheBlockRoundTrip8::underflows            0                       # Coalsr-to-coalsr time for the Nth cache block in an inst (Unspecified)
system.cpu3.cacheBlockRoundTrip8         |           0                       |           0                       |           0                       |           0                       |           0                       |           0                       |           0                       |           0                       |           0                       |           0                       |           0                       |           0                       |           0                       |           0                       |           0                       |           0                       |           0                       |           0                       |           0                       |           0                       |           0                       |           0                       |           0                       |           0                       |           0                       |           0                       |           0                       |           0                       |           0                       |           0                       |           0                       |           0                       |           0                       |           0                       |           0                       |           0                       |           0                       |           0                       |           0                       |           0                       |           0                       |           0                       |           0                       |           0                       |           0                       |           0                       |           0                       |           0                       |           0                       |           0                       |           0                       |           0                       |           0                       |           0                       |           0                       |           0                       |           0                       |           0                       |           0                       |           0                       |           0                       |           0                       |           0                       |           0                       |           0                       |           0                       |           0                       |           0                       |           0                       |           0                       |           0                       |           0                       |           0                       |           0                       |           0                       |           0                       |           0                       |           0                       |           0                       |           0                       |           0                       |           0                       |           0                       |           0                       |           0                       |           0                       |           0                       |           0                       |           0                       |           0                       |           0                       |           0                       |           0                       |           0                       |           0                       |           0                       |           0                       |           0                       |           0                       |           0                       |           0                       |           0                       |           0                       |           0                       |           0                       |           0                       |           0                       |           0                       |           0                       |           0                       |           0                       |           0                       |           0                       |           0                       |           0                       |           0                       |           0                       |           0                       |           0                       |           0                       |           0                       |           0                       |           0                       |           0                       |           0                       |           0                       |           0                       |           0                       |           0                       |           0                       |           0                       |           0                       |           0                       |           0                       |           0                       |           0                       |           0                       |           0                       |           0                       |           0                       |           0                       |           0                       |           0                       |           0                       |           0                       |           0                       |           0                       |           0                       |           0                       |           0                       |           0                       |           0                       |           0                       |           0                       |           0                       |           0                       |           0                       |           0                       |           0                       |           0                       |           0                       # Coalsr-to-coalsr time for the Nth cache block in an inst (Unspecified)
system.cpu3.cacheBlockRoundTrip8::overflows            0                       # Coalsr-to-coalsr time for the Nth cache block in an inst (Unspecified)
system.cpu3.cacheBlockRoundTrip8::min_value            0                       # Coalsr-to-coalsr time for the Nth cache block in an inst (Unspecified)
system.cpu3.cacheBlockRoundTrip8::max_value            0                       # Coalsr-to-coalsr time for the Nth cache block in an inst (Unspecified)
system.cpu3.cacheBlockRoundTrip8::total             0                       # Coalsr-to-coalsr time for the Nth cache block in an inst (Unspecified)
system.cpu3.cacheBlockRoundTrip9::bucket_size        10000                       # Coalsr-to-coalsr time for the Nth cache block in an inst (Unspecified)
system.cpu3.cacheBlockRoundTrip9::min_bucket            0                       # Coalsr-to-coalsr time for the Nth cache block in an inst (Unspecified)
system.cpu3.cacheBlockRoundTrip9::max_bucket      1600000                       # Coalsr-to-coalsr time for the Nth cache block in an inst (Unspecified)
system.cpu3.cacheBlockRoundTrip9::samples            0                       # Coalsr-to-coalsr time for the Nth cache block in an inst (Unspecified)
system.cpu3.cacheBlockRoundTrip9::mean            nan                       # Coalsr-to-coalsr time for the Nth cache block in an inst (Unspecified)
system.cpu3.cacheBlockRoundTrip9::stdev           nan                       # Coalsr-to-coalsr time for the Nth cache block in an inst (Unspecified)
system.cpu3.cacheBlockRoundTrip9::underflows            0                       # Coalsr-to-coalsr time for the Nth cache block in an inst (Unspecified)
system.cpu3.cacheBlockRoundTrip9         |           0                       |           0                       |           0                       |           0                       |           0                       |           0                       |           0                       |           0                       |           0                       |           0                       |           0                       |           0                       |           0                       |           0                       |           0                       |           0                       |           0                       |           0                       |           0                       |           0                       |           0                       |           0                       |           0                       |           0                       |           0                       |           0                       |           0                       |           0                       |           0                       |           0                       |           0                       |           0                       |           0                       |           0                       |           0                       |           0                       |           0                       |           0                       |           0                       |           0                       |           0                       |           0                       |           0                       |           0                       |           0                       |           0                       |           0                       |           0                       |           0                       |           0                       |           0                       |           0                       |           0                       |           0                       |           0                       |           0                       |           0                       |           0                       |           0                       |           0                       |           0                       |           0                       |           0                       |           0                       |           0                       |           0                       |           0                       |           0                       |           0                       |           0                       |           0                       |           0                       |           0                       |           0                       |           0                       |           0                       |           0                       |           0                       |           0                       |           0                       |           0                       |           0                       |           0                       |           0                       |           0                       |           0                       |           0                       |           0                       |           0                       |           0                       |           0                       |           0                       |           0                       |           0                       |           0                       |           0                       |           0                       |           0                       |           0                       |           0                       |           0                       |           0                       |           0                       |           0                       |           0                       |           0                       |           0                       |           0                       |           0                       |           0                       |           0                       |           0                       |           0                       |           0                       |           0                       |           0                       |           0                       |           0                       |           0                       |           0                       |           0                       |           0                       |           0                       |           0                       |           0                       |           0                       |           0                       |           0                       |           0                       |           0                       |           0                       |           0                       |           0                       |           0                       |           0                       |           0                       |           0                       |           0                       |           0                       |           0                       |           0                       |           0                       |           0                       |           0                       |           0                       |           0                       |           0                       |           0                       |           0                       |           0                       |           0                       |           0                       |           0                       |           0                       |           0                       |           0                       |           0                       |           0                       |           0                       |           0                       |           0                       # Coalsr-to-coalsr time for the Nth cache block in an inst (Unspecified)
system.cpu3.cacheBlockRoundTrip9::overflows            0                       # Coalsr-to-coalsr time for the Nth cache block in an inst (Unspecified)
system.cpu3.cacheBlockRoundTrip9::min_value            0                       # Coalsr-to-coalsr time for the Nth cache block in an inst (Unspecified)
system.cpu3.cacheBlockRoundTrip9::max_value            0                       # Coalsr-to-coalsr time for the Nth cache block in an inst (Unspecified)
system.cpu3.cacheBlockRoundTrip9::total             0                       # Coalsr-to-coalsr time for the Nth cache block in an inst (Unspecified)

---------- End Simulation Statistics   ----------
